68
 energy: -103.311598232318 gnorm: 0.000917024365 xtb: 6.6.1 (8d0f1dd)
H            0.00017045464102        5.10386800245157        0.06845696334741
C            0.00009298288028        4.02311939283465        0.05079118498397
N           -0.00009315017398        1.25274117461412        0.00355285986285
C           -1.19482678692873        3.32364171837542        0.04111317239529
C            1.19492235030956        3.32351625607045        0.03862363825028
C            1.14342191310810        1.92730623086041        0.01513583602213
C           -1.14351203030643        1.92743424118586        0.01703855215108
N            3.77882505108237       -0.50657367978520       -0.02299671815480
N            4.44588151506387        0.65558734796063       -0.02031947739430
N            3.60874614178931        1.62090145691096       -0.00591388378015
C            2.34868762770287        1.11695234657722        0.00090478856157
C            2.45123500582269       -0.26516158407403       -0.00992142083097
H            1.68829770863899       -1.01305772736036       -0.00557428959889
N           -3.77912339518489       -0.50621964215549       -0.01928771128375
N           -4.44610652378380        0.65598551039845       -0.01620741935431
N           -3.60889799125433        1.62124405069598       -0.00224210984323
C           -2.34887103443158        1.11720568287060        0.00395617238770
C           -2.45151306030506       -0.26489725499504       -0.00684272294841
H           -1.68862295328859       -1.01283822197372       -0.00288270157843
H           -2.15318070114067        3.81679196410606        0.05065946251061
H            2.15334247253155        3.81657865635614        0.04585970012570
Cl          -0.00016655943924       -3.08992925949669        0.13472553807454
C           -4.45790193052270       -1.73324134922091       -0.03779152774358
C           -5.86652510770632       -4.15946203805180       -0.08233273840181
C           -5.84898483083663       -1.73659330604648       -0.06903916207022
C           -3.77270666119486       -2.93985689068719       -0.02739901651166
C           -4.47720822540075       -4.13092679908817       -0.04900943714412
C           -6.53270311714550       -2.93410900138631       -0.09096687915993
H           -6.37085535003429       -0.79306742953615       -0.07626394551614
H           -2.69477110200071       -2.96593933202301       -0.00085886304886
H           -3.90167292354613       -5.04186393825129       -0.03972462111054
H           -7.61085884894906       -2.90384237128896       -0.11709157351195
C           -6.66807194722761       -5.45150951655819       -0.11790991666768
C            4.45756593852852       -1.73362126462720       -0.04149151927161
C            5.86629185130693       -4.15987314617309       -0.08364262379775
C            5.84857143581785       -1.73695774426727       -0.07649213635476
C            3.77248098107226       -2.94025567895288       -0.02683341253008
C            4.47702479128241       -4.13133839148622       -0.04743336903410
C            6.53232387528878       -2.93447618344174       -0.09728121479305
H            6.37035413212066       -0.79340718878656       -0.08709531873328
H            2.69463067872989       -2.96633356428016        0.00256400490315
H            3.90156160181906       -5.04230601803256       -0.03484905720079
H            7.61041486790263       -2.90417559290298       -0.12641211749360
C            6.66792288632058       -5.45192309033579       -0.11558950435564
C            5.77842789591329       -6.69797119022295       -0.07392673888537
C            7.60695855918561       -5.49294973159252        1.09928105099307
C            7.49069152159982       -5.49214701700394       -1.41192328984596
C           -5.77848309781002       -6.69761918568150       -0.07888493562833
C           -7.48956101268556       -5.48785467073680       -1.41527269689769
C           -7.60788635303425       -5.49608710877312        1.09627020537301
H           -5.11383129427273       -6.73116623807486       -0.93921394604334
H           -6.40174658372685       -7.58919824465851       -0.09854658204897
H           -5.18016334766960       -6.72256393026867        0.82920488791789
H           -6.82819301593116       -5.42620610166300       -2.27718452048876
H           -8.18919058805971       -4.65849948187119       -1.46250337752058
H           -8.05098849343273       -6.41743121507420       -1.47426341621706
H           -7.03120738231723       -5.43928248247030        2.01715691491269
H           -8.17037084740236       -6.42694661666917        1.09595056013475
H           -8.31209494176789       -4.66954033565844        1.08292397193466
H            5.17862049111941       -6.72001169228383        0.83343609464199
H            6.40152683608024       -7.58960072140581       -0.08865808696203
H            5.11501793569356       -6.73446078343365       -0.93523739825622
H            6.82985913641534       -5.43135452823946       -2.27483442711999
H            8.05016211110899       -6.42277199192356       -1.46934950385380
H            8.19201383550025       -4.66402082692561       -1.46045430541886
H            7.02918262597759       -5.43603747653398        2.02015213167023
H            8.30959369471007       -4.66505529408934        1.08549493837848
H            8.17199259304571       -6.42191185812894        1.10107666475225
