71
 energy: -111.105880114042 gnorm: 0.000197270702 xtb: 6.6.1 (8d0f1dd)
N            9.69562129382415        1.69905695211489        0.44439429291652
C            9.25295414911332        0.44786180401463       -0.14037381473871
H            9.72665567349264        0.32472285344975       -1.11323781214424
H            8.15985788538409        0.40920865454777       -0.27050067557218
H            9.55757437824325       -0.37644256342942        0.49906752499286
C            9.15238663514409        1.89185996415648        1.77790379695807
H            8.04935674878852        1.83619896218737        1.79057566075823
H            9.43975694503846        2.88726912955288        2.11858946540334
C            9.73636436012747        0.87536278095879        2.77188354790239
H            9.14910486638643       -0.04429862437881        2.79468050364417
H           10.76399682811043        0.64874205226441        2.47491309234554
N            9.74972063474958        1.40246466372944        4.11439072690000
H           10.35071868245300        2.20789670768059        4.27002648611919
C            8.86328567005498        1.05601530886395        5.05614724299078
O            7.99336968014549        0.20001074393107        4.88775625730186
C            9.00943762265956        1.78869532661825        6.34875791308979
C           10.25594919830204        2.16556594520599        6.83504568697023
H           11.14856986487005        1.86921192381179        6.30686475235228
C            7.86477234259148        2.08860207969159        7.08108403223455
H            6.90676068989914        1.77345143170985        6.69413080485299
C            7.96329125543365        2.77387035811115        8.27878309109332
H            7.07275088529656        3.00391052543336        8.84411817776472
C            9.20305252930723        3.16760301490690        8.74937967134259
H            9.30248404494152        3.70552664849213        9.68068184412259
C           10.35607501004909        2.87304115815817        8.02746471938030
C           11.67440463752880        3.31674720933117        8.57024317526387
O           11.87450126126100        3.42455941761795        9.78140019627021
N           12.59191109089637        3.62620536196682        7.64803115400155
H           12.36485375245115        3.53272354170553        6.66708781605094
C           13.94076459527078        4.01408339038841        7.97723069529135
H           13.91156614920515        4.63174454302531        8.87982362321900
H           14.33386623579552        4.61176892801062        7.15414708425394
C           14.82922160205703        2.79518890209739        8.26862551541237
H           15.87573863636943        3.13645464002847        8.36178533686919
H           14.51412138366971        2.38468994165886        9.23085143826437
N           14.68336388050960        1.72978220850121        7.28836414900536
C           15.28759130789890        0.50344482229570        7.77197806750548
H           14.84289864503023        0.24393658715473        8.73160924862840
H           16.37795811351265        0.59495715069637        7.89912435027140
H           15.08456987058929       -0.29975819697271        7.06847554669787
C           15.18255972998052        2.09359743331322        5.97379981266825
H           16.28437153381879        2.16696409190424        5.95155117162877
H           14.77799081250902        3.07362674162755        5.71837916809583
C           14.70576197506885        1.10215524165405        4.90040475683759
H           15.39050921741086        0.25797233279924        4.80311940850354
H           13.71196879656786        0.74000440700685        5.17717985459380
N           14.62387547382358        1.73315957551093        3.60601634645808
H           13.93375214510261        2.47440980173699        3.51604047668217
C           15.54311078689338        1.57792369144552        2.64465813847203
O           16.50708544123888        0.81736461483346        2.74244354283541
C           15.30893859527745        2.40678504662712        1.42505510964978
C           14.02537940146227        2.66817419305390        0.95984686937547
H           13.17774440394384        2.20677790041851        1.44180154825415
C           16.40726509114213        2.92333393724283        0.74461990048745
H           17.39708431084643        2.69484015130495        1.11174079407477
C           16.22391413548685        3.71144911905201       -0.37748214457311
H           17.07880153478666        4.11054740834875       -0.90222488196162
C           14.94485690915635        3.99094920834677       -0.82391668750911
H           14.77903713420740        4.60669980373783       -1.69569495908805
C           13.83763882467746        3.47654002092073       -0.15530981869618
C           12.47442152048792        3.79700023894055       -0.67313102009950
O           12.26744200442534        4.00493591864769       -1.87000310536512
N           11.51855360060785        3.87962722999960        0.25834293638406
H           11.75166445748252        3.71695009554405        1.22855462358892
C           10.13034972204937        4.10963778770499       -0.05431466047481
H            9.65971601320338        4.58208221499468        0.80864488601822
H           10.07856600476676        4.79555250588919       -0.90501140050810
C            9.41285654544160        2.81061808232031       -0.45126735693600
H            9.78162270147707        2.52258030633203       -1.43860976748267
H            8.33049292442200        3.01698767417785       -0.53088459029835
I           12.01202127188157        4.23174566356671        3.98005176701364
