71
 energy: -112.760453210136 gnorm: 0.000314826519 xtb: 6.6.1 (8d0f1dd)
Cl          -0.00273859814062       -0.39196278727139        4.55535484951317
O            3.49452382228302        0.82944968009467        7.68126650601692
H            2.05482438476055       -1.03927374202696        4.43853395458417
C            2.81292952284704       -2.54436337144281        5.59912077872443
H            3.60207301692839       -3.29460448473999        5.52620444025385
H            1.83891095994079       -3.02720388302076        5.50794039759426
C            2.91313392126886       -1.87929119421318        6.97284518091175
H            2.67717583489234       -2.63914783475865        7.72558228217117
H            3.91575925181235       -1.50143334399447        7.18270132447350
C            4.10331848963673       -0.71466194694314        4.58000303053132
H            5.01519244616683       -1.30809765536982        4.56907730719525
H            4.05805489180181       -0.14511193300404        5.50361528638532
N            1.99701658608373       -0.77596993738697        7.09990380028250
H            1.02710394139578       -0.91389614635382        6.83786089294542
C            2.34541814800259        0.46768915391077        7.46108342111293
C            1.16123321706192        1.38377213934986        7.54886439719787
N           -0.01864165093463        0.78495252585975        7.47960654440932
C            1.29078914896632        2.76437782322106        7.66994738418447
H            2.27362399910567        3.20523994829806        7.72586708482247
C            0.13593185858205        3.53190393396828        7.70555747352552
H            0.19611905683208        4.60600502106809        7.80137636308039
O            3.47357187646075        1.27095071120047        2.02707863620643
C            2.98100070204006       -2.40348291026894        3.19973412373357
H            3.79552337477409       -3.12572211429900        3.28073054617471
H            2.03084321112324       -2.93399325729056        3.12194665487921
C            3.20177986416197       -1.58369242194418        1.92454471670117
H            3.17489696858007       -2.27746840975820        1.07905882327403
H            4.17064550911644       -1.08148891415867        1.92122928701909
H            4.12760297170066        0.00577544012461        3.76544270448555
N            2.18631444021936       -0.57964023927405        1.74876306077063
H            1.22967027619434       -0.86696229878651        1.58457227998947
C            2.38978978908303        0.74440132810247        1.80740646245304
C            1.11957347033066        1.51798826169301        1.62258140973806
N            0.01483228657327        0.78536850493243        1.63053720528062
C            1.09566336023100        2.90460725540610        1.51254936116187
H            2.02269709912893        3.45594974054187        1.51626874469259
C           -0.13672028365292        3.53236124587512        1.40392830867215
H           -0.19571192837084        4.60650929482672        1.30790201707544
O           -3.47745042894211        1.27458310426724        7.08707113737009
H           -2.05917975771544       -1.03743778778499        4.67293551943249
N           -2.94292282447418       -1.60171295191640        4.65809907907144
C           -2.98905408533980       -2.40019755350797        5.91087180314148
H           -3.80514418287637       -3.12060000783144        5.82920757956050
H           -2.04012018687385       -2.93284280430416        5.98894245182563
C           -3.20867529215999       -1.58027786771945        7.18617427386923
H           -3.18283853783088       -2.27425049551714        8.03153777885018
H           -4.17682227884425       -1.07667116719122        7.18961072971434
C           -4.10701105883457       -0.70852674120815        4.53061007928202
H           -5.02014952580628       -1.30003474842057        4.54056415362357
H           -4.13043040799475        0.01147912873774        5.34557091833928
N           -2.19186332101081       -0.57765249819445        7.36226124592549
H           -1.23538338287955       -0.86628755386120        7.52505687856010
C           -2.39400588455967        0.74668880212766        7.30533947430945
C           -1.12260995859762        1.51874902741805        7.48849823512831
C           -1.09717691160096        2.90536184849712        7.59830504401153
H           -2.02371091667781        3.45755147724542        7.59600288154747
O           -3.49764657963053        0.83212027335714        1.42198656940626
C           -2.81990307490739       -2.54071729420626        3.51163812063898
H           -3.60982006204599       -3.29013964926679        3.58461261351981
H           -1.84638785152031       -3.02461108219724        3.60256308354579
C           -2.91968790756281       -1.87544317539028        2.13802360653226
H           -2.68440474041920       -2.63546416948171        1.38521615869879
H           -3.92202015580636       -1.49678911150962        1.92814391165431
H           -4.05987185132082       -0.13863111053982        3.60732222979523
N           -2.00263218172433       -0.77287199437029        2.01107505542997
H           -1.03348165220134       -0.91084304877057        2.27607156664890
C           -2.34938623952637        0.47013354569352        1.64610126314220
C           -1.16436938390293        1.38532834481679        1.55989592104438
C           -1.29241169058287        2.76602334879085        1.43829608303886
H           -2.27471293640739        3.20785691359184        1.38065346694513
N            2.93726669714887       -1.60535325224466        4.45283640906417
