139
 energy: -220.883951604906 gnorm: 0.000647341615 xtb: 6.6.1 (8d0f1dd)
Cl           0.22493310717663        0.22895708498372       -1.64758542721589
C           -1.64130282713643        3.83214395940806       -1.87231123559595
C           -3.23782821482077       -1.57826609004115       -1.73440358043645
C            2.10250599099183       -3.36868613551092       -1.48723120095476
C           -0.88468398293279        5.00066487891580       -1.88841956335822
C           -1.52875062898321        6.22798457119728       -1.95719996035677
C           -2.92086978864343        6.28715339157110       -2.01271494264758
C           -3.67422852780899        5.12122096569975       -1.99866845326844
C           -3.02724541694915        3.88694569725646       -1.92712739529855
C           -4.41684518359508       -0.84654078424722       -1.78479990877820
C           -5.64805172977602       -1.48685405984153       -1.77623853233475
C           -5.73192646394164       -2.87551196327184       -1.71379413032238
C           -4.55155790260210       -3.60539077866277       -1.65715362089309
C           -3.31871851064360       -2.96086266627928       -1.66698647901763
C            1.35360795642575       -4.53737727995686       -1.47225519801042
C            1.99393967157915       -5.77558285874396       -1.40974196626005
C            3.38036910023953       -5.82541880884720       -1.36029901166348
C            4.12911112371479       -4.64910673060358       -1.37212818128017
C            3.49291860998440       -3.41743806543503       -1.43612188299569
N           -2.15315562525479       -5.06378513443864       -1.65945064708115
N           -0.94939395413223       -5.49231622260871       -1.61087669423147
C           -0.09551777521541       -4.43793823986452       -1.52957917364933
C           -0.86838998928103       -3.28946561377581       -1.52870395026292
N           -2.14416409030474       -3.72545500852922       -1.61292746385439
N           -5.13129133801857        2.54292261205425       -1.94542628051665
N           -5.47093968971721        1.31062340454839       -1.90827119361540
N           -4.36776976020925        0.55378463953692       -1.84398034967181
C           -3.27797419639037        1.35159610828712       -1.84070750256508
C           -3.77635061052585        2.64144248451616       -1.90595658460207
H           -1.14664928096598        2.87781355871478       -1.81544163932633
H           -2.28300849815920       -1.08393421454076       -1.75062849151055
H            1.60398462644262       -2.41630073195212       -1.54405840005848
H           -0.95588662694175        7.14072232232062       -1.96905561622266
H           -4.75070062857314        5.13038999628824       -2.04093998054808
H           -6.52819150682230       -0.86744864634333       -1.81990886943878
H           -4.54247502249312       -4.68001303615577       -1.60705202651355
H            1.38511185274051       -6.66435291871731       -1.40229128113795
H            5.20476979381228       -4.70204358141296       -1.33319256806024
H           -0.59373618952710       -2.26117537426813       -1.46416240972167
H           -2.27557139824808        0.99035523595874       -1.79375847453406
C            0.56383342796293        4.90076488931305       -1.83279852392227
C            4.24173471974324       -2.17244594894375       -1.45804247291969
C            3.74376340247224       -0.88205906958654       -1.50213124908928
H            2.74073206472224       -0.51982153498969       -1.52100820388417
C            1.33464315434637        3.75247033862388       -1.78607703929709
H            1.05591226072648        2.72292084238003       -1.78255252179605
N            4.83497425230187       -0.08595897909829       -1.51676486713008
N            2.61232024765648        4.18965720488098       -1.74532487906208
N            2.62308214809091        5.52881399114618       -1.76692445001098
N            1.41982184886846        5.95635375216838       -1.81801287051878
N            5.93791209081331       -0.84506887432161       -1.48140636082079
N            5.59732235157112       -2.07649520544243       -1.44653571550159
C            4.88578775787850        1.31378071695885       -1.57105272767388
C            5.01965590288388        4.07251470078727       -1.69037597064409
C            6.11686785195801        1.95412646125047       -1.57286848786885
C            3.70693920873379        2.04462376149188       -1.62682415275511
C            3.78720719778392        3.42721651097127       -1.68692794513243
C            6.20012345934283        3.34291858151426       -1.63295672702427
H            6.99681395751471        1.33461010845701       -1.52787127611965
H            2.75301014829530        1.54865102021897       -1.62402619079948
H            5.00979346755014        5.14718783612814       -1.73869586456220
C            7.57012330925053        4.00257338487870       -1.63471388770869
C           -7.10223767158565       -3.53474823479705       -1.70954219136882
C            7.48402496376470        5.52932368559971       -1.71220399691033
H            6.94810846999416        5.93495302314079       -0.85776932299295
H            6.98792753875266        5.84661467069149       -2.62599885036906
H            8.48846366210302        5.94724790082266       -1.71049011691423
C            8.36125298466924        3.49907045025419       -2.85073405480929
H            8.51081763604159        2.42418716546302       -2.80885167046239
H            9.33613820430147        3.98006471711170       -2.88390609062817
H            7.82767847632993        3.73456356649378       -3.76924636839644
C            8.30436385917008        3.62194288234267       -0.34075445864474
H            8.44724351595574        2.54772568560029       -0.26829457251111
H            7.73315687429021        3.95015535348912        0.52521764308166
H            9.28053686493307        4.10068180606191       -0.31316996169718
C           -7.89365001529518       -3.02868544930185       -0.49475348612778
H           -8.86860345615997       -3.50951062774176       -0.46118507893551
H           -8.04328978544539       -1.95390982192935       -0.53880519120723
H           -7.36070340825908       -3.26248600915402        0.42458324314680
C           -7.01676863279909       -5.06140494812800       -1.62897995581639
H           -8.02139216795159       -5.47888569798848       -1.63092370885203
H           -6.52187075600325       -5.37724145323914       -0.71399724985224
H           -6.48023621264210       -5.46895704687296       -2.48209760638629
C           -7.83641911053885       -3.15670491640130       -3.00432462195766
H           -8.81263268280014       -3.63543951835015       -3.03093315802147
H           -7.26522622118217       -3.48675539859927       -3.86956659548391
H           -7.97921395251347       -2.08262889179925       -3.07901369443563
O           -3.44121129841170        7.55161742112652       -2.07833267363372
O            4.11820805306840       -6.97677714852254       -1.29830463041003
C            3.45444217773389       -8.22600528723873       -1.29023372046867
H            2.80518634448710       -8.32105545771427       -0.41169748919977
C            4.55238679349791       -9.28583805701056       -1.24145895193694
H            2.84993363412243       -8.35707007753184       -2.19545833408227
C           -4.84397625802421        7.72113212903248       -2.14665833518239
C           -5.08346573041768        9.22791859164458       -2.20155433047415
H           -5.25456913992216        7.24561576724926       -3.04533952037447
H           -5.33584055050145        7.29724422676679       -1.26321224970368
H            5.20209390256937       -9.17410566266637       -2.12102222519008
O            3.96035697344219      -10.56860548824997       -1.22362477565586
H            5.16399270647307       -9.13172963630280       -0.34122565005958
C            4.92441835372366      -11.60133134800612       -1.18364840639999
H            5.57951424964206      -11.55061992330260       -2.06459546039835
C            4.20396426681682      -12.94549919377039       -1.16439178205360
H            5.55012180691476      -11.50937868667696       -0.28490458184887
H            3.58052213827558      -13.04462572468838       -2.06340053365205
H            3.55115868902674      -13.00338277245017       -0.28277749876787
O            5.18800478988018      -13.95992001228007       -1.12454393202447
C            4.64418817303071      -15.26467499289570       -1.10676856516055
H            4.03733382426854      -15.44416629362665       -2.00500035864720
H            4.00447135416817      -15.40620744664783       -0.22473481217729
C            5.80418500821853      -16.25424156541924       -1.06439405069792
H            6.44356696261783      -16.10473277363047       -1.94615683518649
O            5.27859650270923      -17.56409358337714       -1.04796291343683
H            6.40952631592052      -16.06873726728109       -0.16562970154566
C            6.28331535623195      -18.55700120764400       -1.01329170277776
H            6.92775841730763      -18.49337974025086       -1.89709296588981
H            5.76508376068681      -19.51313398457724       -1.00270130578604
H            6.90047875658535      -18.45892239025920       -0.11333993010181
H           -4.66912886536447        9.69372043875511       -1.29628946744063
O           -6.47125616108660        9.47600589741358       -2.29447409756388
H           -4.55912293165942        9.64509478675954       -3.07293574381188
C           -6.76416972644551       10.85790338659982       -2.33931062404548
H           -6.40200059695921       11.35777130048709       -1.43001460198902
C           -8.27467618473597       11.03746472080912       -2.44911916282061
H           -6.27687914025959       11.32681847526962       -3.20563202815346
H           -8.76771800217689       10.56742809400080       -1.58718813816308
H           -8.64048214761322       10.55142786845293       -3.36384266354428
O           -8.54001769566198       12.42577084241266       -2.48116458066536
C           -9.91453852388003       12.72908142002853       -2.61102307947750
H          -10.48460217086873       12.31627518235399       -1.76726671579726
H          -10.31873653380502       12.30439923454708       -3.54042934974830
C          -10.05758243985471       14.24737860430704       -2.63621713509900
H           -9.66230247679409       14.66797216173060       -1.70045916330236
O          -11.42335318771921       14.56930109651377       -2.78763980678645
H           -9.46908612135880       14.65444223962355       -3.47099333958427
C          -11.65720012769419       15.96234764495961       -2.82018376575138
H          -11.32973116515740       16.43695683067435       -1.88842577725579
H          -12.73089865083339       16.08749156707462       -2.93997669101306
H          -11.13238483542514       16.42827162998866       -3.66158128655918
