86
 energy: -159.346221946311 gnorm: 0.000429130911 xtb: 6.6.1 (8d0f1dd)
F            4.70257115173435        3.82659224590330       15.88267750009516
F            6.67215093551104        5.52952707379648       14.52644667939292
F            6.39786226302331        4.12074267157681       10.64287691908529
F            5.66769156831765        4.03273206235738        7.74463964735020
F            4.44205610331238        5.70871755576839        3.97915249256779
F            3.10782684940680        3.10795519723496        3.60682989549433
F           -0.55040749519663        4.22332720290567        6.11917072109898
F           -2.25649544298929        4.06786414749859        8.54815939006575
F            1.76269212800035        0.25878126865083       10.77223357428469
F            3.47257126277793        1.45327679773923       12.90202509867615
N            3.58617828428545        5.24986887897524       12.87040659625435
N            4.55950001787890        6.87205504217972        9.48271944541319
H            3.99536145140140        7.69743709445405        9.59766229289536
N            2.82657809730370        4.45751134554664        6.83522872754779
N            0.54594932557451        1.95731950572499        8.55292190587167
N            0.38227714054691        3.03425851848362       12.41571108826269
C            3.33702525596249        4.45372732050864       13.94626467498698
C            4.48314527791722        4.45940387727218       14.70530745896446
C            5.42819784151421        5.27518365938224       14.05427330268661
C            4.84835438619276        5.75778011672067       12.90527769481345
C            5.31431150470067        6.77691444703877       11.89816435331394
C            5.17210164059533        6.22067978530056       10.50680266879914
C            5.68149650624274        5.05811032796020        9.97735200507262
C            5.33793240834524        5.01954579297039        8.61351530048303
C            4.61971766485782        6.15801046424863        8.32811464786705
C            4.03744828171721        6.63691653018143        7.02382747132012
C            3.57286227383513        5.43232338962051        6.25230360517162
C            3.76442980918203        5.04565243423343        4.94735593545316
C            3.12029594106687        3.80834552771413        4.76715259984766
C            2.53706328735300        3.45780827840908        5.96205397298398
C            1.82520988243556        2.20021699316087        6.38416381873883
C           -1.12257162765193        3.35848670173607        8.34919439321375
C           -0.55579650896186        2.43273764142129        9.19484278880735
C           -0.93502569345167        1.93027569605161       10.56608743445371
C            0.26886289877069        2.06580853679900       11.46925030180442
C            0.72427665427931        2.55205193365060        7.34643223655083
C           -0.32215823673240        3.43104000795554        7.19351460800556
C            1.43625237580410        1.33700304985159       11.53374891904566
C            2.25147888307999        1.90212763264735       12.52954117488273
C            1.57595603902033        2.97520720736599       13.06138346542209
C            1.96737872383426        3.87865625615767       14.19989182872139
C            4.45259977901312        8.03849001911745       12.07087147250208
H            3.41158678508315        7.82682508319358       11.84101433345197
H            4.51245574613979        8.37292588163439       13.10322282270891
H            4.81658315758066        8.83700815895352       11.42972626190702
C            6.79091175669502        7.13158302479170       12.12532834732515
H            7.40716346784538        6.23837269548985       12.06606589537939
H            7.12091594857168        7.83373085307525       11.36395002639378
H            6.92642501120420        7.58077500748899       13.10486434056040
C            5.12573262461936        7.39328129356587        6.24734276588486
H            5.94593523754230        6.72389998157587        6.00028266873007
H            4.71752997180056        7.79751668153444        5.32550844348918
H            5.51060517722353        8.20952883300751        6.85298796884693
C            2.83840728748970        7.56755102324567        7.27002301392190
H            2.13526941066064        7.11040602753471        7.96075576068283
H            3.16815727245608        8.52313128272043        7.66899298411331
H            2.32238015828777        7.74894526437927        6.33066312330465
C            2.85645208837467        1.27106725213562        7.04457486071778
H            3.28785635964514        1.73773811299379        7.92777315776736
H            2.40431975182552        0.32082079801834        7.31855562514893
H            3.66419157824870        1.07768071259464        6.34342055185453
C            1.19677876184612        1.49351022276598        5.17327969872713
H            0.52630518790013        2.17067209685146        4.65029297057603
H            1.96786793184072        1.16532497136469        4.48317668330322
H            0.63173785955225        0.62716811401705        5.50788559140258
C           -1.34628579611789        0.44998762763307       10.47037584505898
H           -0.53102693403472       -0.16292631789774       10.09872580573240
H           -1.63287322008720        0.08570918828613       11.45349911317601
H           -2.19106454197180        0.34742570757454        9.79423556518061
C           -2.11148540908703        2.74055372800736       11.11821234341374
H           -1.90128553274340        3.80642619530562       11.08145030002973
H           -2.99384989241722        2.55909821923889       10.51081071524678
H           -2.32560325313264        2.44238144967183       12.14100877673266
C            0.97684402126727        5.04682372848483       14.33126632187828
H            0.89798765563592        5.59172090881355       13.39416922284398
H           -0.00352715945830        4.68194082450246       14.62662593748911
H            1.33175263699690        5.73299619907857       15.09561375297616
C            1.95741439854140        3.05189853898234       15.49394237840412
H            2.68257820158106        2.24481391986165       15.43282097178917
H            2.20958368102708        3.67857543952240       16.34455319977831
H            0.97030476805375        2.62396998968439       15.64887026309258
H            2.97100778659347        5.31685575336356       12.05825044126248
H           -0.27572212341420        3.78855807670806       12.51981790964269
H            1.19537073786862        1.30364987623227        8.95569333631543
H            2.51289558915555        4.49643177745468        7.80434430007104
Br           1.78292172998351        5.01741387415139       10.03498612391547
