299
 energy: -563.351992849369 gnorm: 0.000728458981 xtb: 6.6.1 (8d0f1dd)
O            0.41348332923008        8.69410668268038       -1.20240966023077
O            1.03593948579731        3.45667860429653       -4.01764128150841
O            1.76450765431743        4.49001736059597        2.14571981641362
O            0.69639025936116        9.87392833785255        4.72004747068364
O            5.95426793786007        6.72623941870581        4.90916377929182
O            6.60056344565274        1.13769360120144        2.74172397106892
N            1.73242173104049        7.48568595272854       -2.64500852414267
N            1.08644654174188        6.54936325997405       -0.74148420865526
N            2.28273213937821        5.36617553428977       -3.67103890499943
N            1.20372492399794        4.45817072197580       -1.96069750589805
N            1.46758673725546        6.70729376086317        1.64392093199358
N            2.77824617147976        6.16854305073262        3.34775490832943
N            1.00732053231172        8.84219668427891        2.68613189791690
N            2.35925974487342        8.32868165396706        4.36285845648296
N            4.94043751348921        5.12650230984123        3.61305320287228
N            7.08630032353783        5.56616445716628        3.28258713237776
N            5.15918218170156        2.93075726631757        2.64895919323561
N            7.34749560477974        3.29433843282629        2.48640289467730
C            1.03018177895123        7.68533847290478       -1.49236624288027
C            1.47035080141572        4.33302329214967       -3.29573843564274
C            2.52757518904909        6.26499020787373       -2.58447396154920
H            3.58966083499517        6.51513840563307       -2.49860648228145
C            1.92551453502463        5.54547698658451       -1.35101217016401
H            2.66452283848856        5.17170938636046       -0.62685944106841
C            1.99064838359783        5.66888149948185        2.35320469758791
C            1.28953411308899        9.09699087533291        3.99572822776684
C            1.98492347881727        7.98768861472114        2.07728551345023
H            2.48350493283949        8.49588197461601        1.24121409784674
C            2.91880625434093        7.60959244489102        3.25603010548005
H            3.97334637860649        7.87889864834237        3.11206330717993
C            5.98715927507767        5.89774701429336        4.01698231601697
C            6.39164562808830        2.33060130269535        2.63420116458648
C            5.25866226167777        4.34642861048640        2.43330412013010
H            4.64110378355487        4.66798712777420        1.58425815960770
C            6.78025949256527        4.59479375014114        2.25934450117301
H            7.06718494219765        4.98517103660051        1.27029349176798
C            2.97118016907353        5.38856064070462       -4.94810793725178
H            3.30622966463382        6.41221597239397       -5.13422604961158
H            2.24237410348396        5.09956341439491       -5.70854435345902
C            4.16507121901719        4.46623366808024       -5.03571764644836
C            5.12227562186576        4.40887362632137       -4.02990845217397
H            4.99512199637730        4.97888048926267       -3.12079310965899
C            6.23323317034057        3.59437203409060       -4.15390567428796
H            6.95373543593141        3.54438343516411       -3.34847361042923
C            6.39174320530636        2.79435316500817       -5.28055796141840
C            7.50989556032040        1.81460118230164       -5.35430494104716
C            5.42641896625921        2.83206350553437       -6.28074916625580
H            5.53755940216202        2.18622561768990       -7.13733585285234
C            4.33990716783080        3.67577261040173       -6.16600393879073
H            3.59770907824709        3.69656179815092       -6.94765726658092
C            0.31265098802104        3.56403476406721       -1.26101541969366
H            0.80712840825992        3.19998207048645       -0.35519072973963
H            0.14484283073307        2.72623102512657       -1.94670566397933
C           -1.00310440250251        4.21194778534952       -0.91206879915474
C           -1.65663876415168        3.86838331169787        0.26860524359534
H           -1.24311220886410        3.10112526025360        0.90431080762255
C           -2.81091002727812        4.52570238478009        0.64034954125837
H           -3.32239029182568        4.28191442541118        1.55857779872041
C           -3.33020576105038        5.54964070569838       -0.15263343519099
C           -4.52156345229168        6.26099979750147        0.36706736001520
C           -2.70851199298996        5.85409013270746       -1.36293835340321
H           -3.11277533228787        6.59148939272785       -2.03882245409271
C           -1.56161361785179        5.18082049183920       -1.73778540126661
H           -1.08346611437263        5.41504642019964       -2.67672061781629
C           -0.01762949052456        9.56254846384122        1.96369589380517
H            0.19914941620201        9.48725016877959        0.89402268966597
H            0.04750133376870       10.62049312211655        2.24280794219224
C           -1.41173411655023        9.06406001989643        2.24897494632637
C           -1.65494972273911        7.88057629632995        2.93600328912833
H           -0.82884129418214        7.26952853118624        3.26803967561707
C           -2.94905511889584        7.49178327530991        3.22571218896723
H           -3.14762699197459        6.58847146297470        3.78184160633421
C           -4.03007997718792        8.26079922859145        2.80488305400464
C           -5.39871905869641        7.84214923873615        3.20565534146681
C           -3.79100012236321        9.43232118758610        2.08733050226042
H           -4.60793754672584       10.06426667466873        1.77487697154426
C           -2.49446017787668        9.82883514505641        1.82464854898743
H           -2.30853792036178       10.75092943057450        1.29666214726647
C            2.97333952289047        8.40506668642357        5.67106929309644
H            2.71854237434521        9.39104228906591        6.07398017235062
H            4.05662115502924        8.32738074860486        5.55282020854934
C            2.46791227863077        7.34474815406373        6.61670417079855
C            1.10486662759557        7.09146525408605        6.72136388241534
H            0.41329931002812        7.66142896120519        6.11961140558016
C            0.63101987358538        6.13359331041404        7.59740665872099
H           -0.43075822756098        5.94187541209499        7.63192220998444
C            1.52392019030181        5.40680052073758        8.38422764002985
C            1.08403350494208        4.34942119375567        9.32990755051530
C            2.89171405651952        5.65056998729982        8.26965530404807
H            3.57029444563599        5.07175293454642        8.87690306331053
C            3.35863510723092        6.61600626231640        7.39921795141990
H            4.41874172400471        6.80333083292070        7.31600815914065
C            3.96470574422394        2.16280120124411        2.37817934766104
H            3.09919008509903        2.69424389483671        2.77842839697103
H            4.08246360680625        1.21353204893920        2.90933793865930
C            3.71415446954582        1.87840413052643        0.91811116676240
C            2.55427026389032        1.19015316070421        0.57002319443793
H            1.86748497241279        0.89719156133278        1.34819913912853
C            2.27631258533432        0.87792745652101       -0.74607574875104
H            1.35619008980623        0.36216335717359       -0.97381738331749
C            3.15758914808244        1.26493104759540       -1.75555026535679
C            2.94535376301606        0.98009183124365       -3.19896768994217
C            4.30679841244885        1.97062534379826       -1.40996195705016
H            4.97761140830921        2.26893006552670       -2.20122664369917
C            4.58616674965648        2.26714018993837       -0.09023314059694
H            5.49589342460016        2.79987515731364        0.14554134997865
C            8.74410386472005        2.97030193113298        2.28125709406259
H            9.15104165643786        3.64238811165019        1.52175704265662
H            8.77323506185541        1.93910056681197        1.91042294276562
C            9.56801174653030        3.05208582246515        3.54081598270765
C           10.84691665774056        3.59788648680013        3.50167819875956
H           11.23018112709605        3.98294681439920        2.56887913590091
C           11.62613594452687        3.65227609058283        4.64253248645688
H           12.62865431033745        4.04507040128827        4.56740192017562
C           11.13105085107814        3.15581546230938        5.84738444462420
C           11.92324171908367        3.15333859099698        7.10355982687926
C            9.85414335196842        2.59576889960131        5.88235707583972
H            9.49147831325587        2.19865087295696        6.81778564937007
C            9.07897924380608        2.54895736105125        4.74156120226372
H            8.09704238786482        2.10299942259037        4.77055619693508
C            1.94161620638414        8.56470664932974       -3.57640681428884
H            1.07897707997061        9.22891066253171       -3.48467106775660
H            2.00858864167988        8.16188410227950       -4.58907727899184
C            0.52472944334183        6.48179779067606        0.58198757652358
H           -0.27027727063580        7.22914791870968        0.62368192669083
H            0.11898280145009        5.48315111565189        0.75546910862793
C            3.61666339245848        5.31250184962589        4.14738890369421
H            3.73634056075723        5.74936672601008        5.14091863642301
H            3.11262421986764        4.34655490900609        4.21519427756294
O            9.85871414691936        5.79455822915145        1.03540271377920
O            9.16595828636124       11.41749246481064        3.48623777599956
O            8.75700655098854       10.22768668696445       -2.12247197192863
O            9.03524403296786        4.88422541746103       -5.10321671365696
O            4.41063825009922        8.26061268877304       -4.93370110790963
O            3.39725426566311       13.71695848418336       -2.92780287706146
N            8.64921988898848        7.19548866347532        2.40717988565974
N            9.39479992545949        7.97140178161193        0.46955921520247
N            8.07187932425486        9.40305235734514        3.25696651771167
N            9.36085297111797       10.12487239990858        1.60227940385623
N            9.00207024929972        7.94969407262931       -1.90865565081100
N            7.48346675358439        8.73795787511980       -3.31951572496829
N            9.00216611562611        5.77575435072958       -2.98401107612412
N            7.69185801161238        6.65089890924664       -4.54360448244448
N            5.30998584152636        9.79252250572398       -3.47802773407842
N            3.14942853956427        9.31304836735758       -3.34037126834841
N            4.91093353100020       12.00780902272071       -2.62161071604613
N            2.73214385994906       11.55203103092839       -2.56578891444446
C            9.34455847075755        6.87118361015767        1.27371514492798
C            8.90452363300736       10.40799391500968        2.84847817662794
C            7.89564137781857        8.42874116328785        2.21882060915107
H            6.83952077264134        8.18612500514675        2.07753957619561
C            8.60793170660661        9.05049550619460        0.99760453343215
H            7.94228794951716        9.44907159082130        0.22079019816328
C            8.43608333664992        9.09023293075743       -2.41048762158070
C            8.61698969935461        5.69529153151836       -4.28472414798303
C            8.24680383093710        6.77015202110400       -2.27523646137517
H            7.76209087423886        6.33291952037889       -1.39059182085556
C            7.25943586792716        7.31269649739601       -3.34040726279502
H            6.20275528326293        7.09284766492809       -3.13525712627737
C            4.30298170474813        9.04201851603073       -4.00396603622756
C            3.65109467472010       12.54485989573915       -2.72365254042240
C            4.86340655385746       10.59652265826864       -2.35315693764034
H            5.42815449922624       10.33584259873451       -1.44866559514077
C            3.34244056387005       10.28331428923844       -2.28608356384771
H            2.99016215467275        9.87873159149402       -1.32836438674897
C            7.15009268131056        9.59608447830768        4.35456471650023
H            6.87687177159905        8.61854881146808        4.76333912315214
H            7.69003004364620       10.15924543887887        5.11979604915385
C            5.88524052549718       10.34122614329148        3.99821001924890
C            5.41166607107294       10.46066663711722        2.69726733988939
H            5.95248081164471       10.04458113190778        1.86150291367081
C            4.24051686250045       11.14657440796804        2.43378643079146
H            3.87413831889246       11.23688447435786        1.42095252442657
C            3.55397639440121       11.77894915616686        3.46101544905467
C            2.38288790317465       12.62316494602909        3.11686902841342
C            4.01193495756097       11.65357094365075        4.77013736627663
H            3.46995735975675       12.12076239297718        5.57738560084574
C            5.15305650843144       10.92356685032287        5.03110733149599
H            5.50601977620320       10.82858892349537        6.04534081058501
C           10.39696632766641       10.87170254886375        0.93175110175297
H           10.06590547149471       11.10941758256815       -0.08387804355195
H           10.52254602546012       11.80467887483710        1.49175432239075
C           11.72083843001148       10.14436495479244        0.89054912209991
C           12.69152344223382       10.55341180799671       -0.01994822633665
H           12.47798846851876       11.37160238489704       -0.69018358014567
C           13.92350169415772        9.93098573815874       -0.06463944468344
H           14.68138048119417       10.25055740869073       -0.76138533017931
C           14.19059923615869        8.86309740721189        0.78764677139140
C           15.49991328288617        8.17113614589813        0.76701330934951
C           13.21656931470888        8.43992273594759        1.68738434857986
H           13.43913239993176        7.61191109091251        2.34242096050137
C           11.99957293714635        9.08901059926802        1.75090041883881
H           11.26460674956388        8.77363597395184        2.47553422953539
C            9.89899285414011        4.82143080957246       -2.35246635084972
H            9.60851234550734        4.72349455618351       -1.30419204306609
H            9.76443474062436        3.85782030825059       -2.85655178296593
C           11.34922086044295        5.22943112224516       -2.45370947588538
C           11.91588987671128        5.48076740422353       -3.69830821923115
H           11.31662448055827        5.36277963320492       -4.58700767176570
C           13.23970040638781        5.86168885248987       -3.80186146020573
H           13.65177668486868        6.07813511948046       -4.77552589401329
C           14.01429323914511        6.00980319666727       -2.65245754174695
C           15.42611229833023        6.46446133443052       -2.71663060963475
C           13.44942187429905        5.76281041126267       -1.40406562737519
H           14.05748884314704        5.88159867190157       -0.51986724025234
C           12.13044990987839        5.35989319156663       -1.30948202946782
H           11.70151059109708        5.15287287342073       -0.34060514317969
C            7.00111950818278        6.72252760086128       -5.81447397429380
H            7.11892069431612        5.74489899440284       -6.29498148022394
H            5.94078307058822        6.89878492427524       -5.63062511188509
C            7.56085708675690        7.78872687980187       -6.72029559453006
C            8.93387258181602        7.96639057472138       -6.84405403619461
H            9.60176388262638        7.34528090628949       -6.26819037585912
C            9.44630260900953        8.91749580446927       -7.70566384834297
H           10.51532199536383        9.05556281125691       -7.75932982255983
C            8.58258778706590        9.71477717439949       -8.45517905641346
C            9.07412434700685       10.75664432183492       -9.39269498211021
C            7.20548666281972        9.55774877590035       -8.31008912901087
H            6.54948854096351       10.19475968790390       -8.88269989628336
C            6.70000526534769        8.59720924522015       -7.45600909020295
H            5.63365455330921        8.47155430968231       -7.34661763142817
C            6.04233697168417       12.85062425914992       -2.26694126658242
H            6.96243841298484       12.37710425095192       -2.60873412036030
H            5.89022842758710       13.79207431080792       -2.80167400748891
C            6.12008412757902       13.11747961666033       -0.78316315421229
C            7.22753838810270       12.71291626609811       -0.04804682356318
H            8.03802154478118       12.21080562867385       -0.55503565988635
C            7.29805969883838       12.94528116095519        1.31425490868284
H            8.18121751814996       12.64335565712281        1.85099072092146
C            6.23675591170788       13.55809083030882        1.97670194908489
C            6.16657271633924       13.72842272777234        3.45015547773469
C            5.13865483952625       13.99244389319312        1.23030429520140
H            4.33000760054171       14.49532199728186        1.73818264479157
C            5.08619227609875       13.78503721784292       -0.13158144469950
H            4.23884987417461       14.14176308597296       -0.69597872171020
C            1.32098653855133       11.82085416866818       -2.37065297798012
H            0.95066722887026       11.16051489111221       -1.58205379458161
H            1.24333441771526       12.86097035714067       -2.03485454576554
C            0.50470355123723       11.65198071382079       -3.62581643719359
C           -0.68484593964523       10.92955505264912       -3.59599190449717
H           -1.00361628506851       10.47402884151678       -2.67052494990711
C           -1.44317115420334       10.79278799265303       -4.74176105876203
C           -1.01738444058869       11.37334312459352       -5.93524336062778
C            0.17320503234290       12.09773750440289       -5.96742748816945
C            0.92375557580964       12.23596180224215       -4.81672905686010
H            1.83610730251428       12.81218426136893       -4.82869372844544
C            8.35654455066062        6.23081102036144        3.43565558162939
H            9.16217309079495        5.49220235701509        3.41509017952414
H            8.32562779240969        6.73819993950211        4.40295326175852
C            9.97525182962231        7.99087562267079       -0.84824430105008
H           10.63967153458613        7.12870401133466       -0.92262868414192
H           10.54393645117337        8.91368794477848       -0.98250832998143
C            6.65248316314679        9.70568817352183       -3.99387942635847
H            6.56778794962372        9.42908931731270       -5.04910530050399
H            7.15300057862036       10.66931459983307       -3.89131518388775
O           16.48166729303157        8.91565962426742        0.29376777518416
H           -2.37010523985775       10.24057577868129       -4.73948671322442
H            0.49591593372985       12.55196773381569       -6.89024009902601
C           -1.85174435135707       11.20877893872045       -7.14344730527262
O           -1.36363078041141       11.80468309440137       -8.22187922371270
O           -2.89725314540396       10.58513396790269       -7.16574486044064
H           -1.93780020153897       11.67982829417319       -9.00215449989012
O           15.66508084685854        7.04092433219283        1.18893255696667
H           17.32427801279797        8.42691872025549        0.24625567148233
O            5.17183097881236       14.19676369361427        3.97934548724147
O            7.16425332515448       13.33505182971443        4.22245948476455
H            7.93254380814177       12.89223160656012        3.80118226116097
O            1.56583479151413       12.29606494109404        2.28077333890115
O            2.28662896566687       13.78747911847349        3.74294077232967
H            3.09348140756775       14.02328839880007        4.24737169951471
O           -5.20536369257190        5.81475356159927        1.26505072081120
O           -5.60413188223731        7.19532269683248        4.21208925450887
O            8.43287149409035       11.75186097529276       -9.65680918155906
O           15.92433208792369        7.16706226958770       -1.86361426517562
O            3.54435107421058        1.57937970961436       -4.06608573621986
O            7.32908976040487        0.65549109737485       -5.66563394142973
O           11.70028028711157        2.37957844326375        8.01131181205434
O            1.81286938841350        3.44232437555553        9.67449147990806
O           16.14940556738637        6.07907635807103       -3.76524115544902
H           15.68791278596822        5.45799777931487       -4.35801778482710
O           -0.15520102167516        4.41905205795343        9.81077524667897
H           -0.64539588061260        5.21269814845818        9.53001839125233
O           12.90727398112126        4.04230722319422        7.22282934603561
H           12.97370956474823        4.66359059637273        6.47533025710930
O           -6.41795129539116        8.25266914739341        2.45778794391877
H           -6.14243121175307        8.62510590389764        1.59999094716174
O           -4.82089398754912        7.45573367983395       -0.14598342246131
H           -4.25846938564302        7.71742761170795       -0.89578753610393
O           10.26423092359927       10.56475096151661       -9.95833047038722
H           10.66297307869651        9.69915541530561       -9.75413962976162
O            2.08456587541738        0.02117657108898       -3.52772504494854
H            1.71514785100529       -0.46107047001593       -2.76508607221760
O            8.72293905356583        2.23492609613570       -5.01763847560445
H            8.83240415802602        3.22563097793589       -5.03947290554370
B            5.12043800905855        7.27211680975375       -0.14733943969358
F            5.30620808914237        6.06133858823629       -0.79029602240321
F            3.90851224705727        7.82569123206113       -0.50286458144142
F            6.13566646848009        8.14095171776561       -0.50803549704829
F            5.15138988987750        7.06891491314459        1.21855730285418
